
*** ChampSim Multicore Out-of-Order Simulator ***

Warmup Instructions: 20000
Simulation Instructions: 50000
Number of CPUs: 1
Off-chip DRAM Size: 4 GiB Channels: 1 Width: 64-bit Data Rate: 3200 MT/s

VirtualMemory physical capacity: 8588881920 num_ppages: 2096895
VirtualMemory page size: 4096 log2_page_size: 12

CPU 0 runs dpc3_traces/641.leela_s-800B.champsimtrace.xz
CPU 0 Bimodal branch predictor
Basic BTB sets: 1024 ways: 8 indirect buffer size: 4096 RAS size: 64
SPP-DEV original prefetcher

Warmup complete CPU 0 instructions: 20004 cycles: 5074 (Simulation time: 0 hr 0 min 0 sec) 

Finished CPU 0 instructions: 50000 cycles: 142980 cumulative IPC: 0.349699 (Simulation time: 0 hr 0 min 0 sec) 

ChampSim completed all CPUs

Region of Interest Statistics

CPU 0 cumulative IPC: 0.349699 instructions: 50000 cycles: 142980
cpu0_DTLB TOTAL     ACCESS:       7173  HIT:       7049  MISS:        124
cpu0_DTLB LOAD      ACCESS:       4572  HIT:       4453  MISS:        119
cpu0_DTLB RFO       ACCESS:       2601  HIT:       2596  MISS:          5
cpu0_DTLB PREFETCH  ACCESS:          0  HIT:          0  MISS:          0
cpu0_DTLB WRITEBACK ACCESS:          0  HIT:          0  MISS:          0
cpu0_DTLB TRANSLATION ACCESS:          0  HIT:          0  MISS:          0
cpu0_DTLB PREFETCH  REQUESTED:          0  ISSUED:          0  USEFUL:          0  USELESS:          0
cpu0_DTLB AVERAGE MISS LATENCY: 155.79 cycles
cpu0_ITLB TOTAL     ACCESS:       3500  HIT:       3482  MISS:         18
cpu0_ITLB LOAD      ACCESS:       3500  HIT:       3482  MISS:         18
cpu0_ITLB RFO       ACCESS:          0  HIT:          0  MISS:          0
cpu0_ITLB PREFETCH  ACCESS:          0  HIT:          0  MISS:          0
cpu0_ITLB WRITEBACK ACCESS:          0  HIT:          0  MISS:          0
cpu0_ITLB TRANSLATION ACCESS:          0  HIT:          0  MISS:          0
cpu0_ITLB PREFETCH  REQUESTED:          0  ISSUED:          0  USEFUL:          0  USELESS:          0
cpu0_ITLB AVERAGE MISS LATENCY: 219.056 cycles
cpu0_L1I TOTAL     ACCESS:       1478  HIT:       1230  MISS:        248
cpu0_L1I LOAD      ACCESS:       1478  HIT:       1230  MISS:        248
cpu0_L1I RFO       ACCESS:          0  HIT:          0  MISS:          0
cpu0_L1I PREFETCH  ACCESS:          0  HIT:          0  MISS:          0
cpu0_L1I WRITEBACK ACCESS:          0  HIT:          0  MISS:          0
cpu0_L1I TRANSLATION ACCESS:          0  HIT:          0  MISS:          0
cpu0_L1I PREFETCH  REQUESTED:          0  ISSUED:          0  USEFUL:          0  USELESS:          0
cpu0_L1I AVERAGE MISS LATENCY: 147.371 cycles
cpu0_STLB TOTAL     ACCESS:        142  HIT:         41  MISS:        101
cpu0_STLB LOAD      ACCESS:        137  HIT:         41  MISS:         96
cpu0_STLB RFO       ACCESS:          5  HIT:          0  MISS:          5
cpu0_STLB PREFETCH  ACCESS:          0  HIT:          0  MISS:          0
cpu0_STLB WRITEBACK ACCESS:          0  HIT:          0  MISS:          0
cpu0_STLB TRANSLATION ACCESS:          0  HIT:          0  MISS:          0
cpu0_STLB PREFETCH  REQUESTED:          0  ISSUED:          0  USEFUL:          0  USELESS:          0
cpu0_STLB AVERAGE MISS LATENCY: 214.832 cycles
cpu0_L1D TOTAL     ACCESS:       7853  HIT:       6583  MISS:       1270
cpu0_L1D LOAD      ACCESS:       4832  HIT:       3724  MISS:       1108
cpu0_L1D RFO       ACCESS:       2919  HIT:       2760  MISS:        159
cpu0_L1D PREFETCH  ACCESS:          0  HIT:          0  MISS:          0
cpu0_L1D WRITEBACK ACCESS:          0  HIT:          0  MISS:          0
cpu0_L1D TRANSLATION ACCESS:        102  HIT:         99  MISS:          3
cpu0_L1D PREFETCH  REQUESTED:          0  ISSUED:          0  USEFUL:          0  USELESS:          0
cpu0_L1D AVERAGE MISS LATENCY: 78.2157 cycles
cpu0_L2C TOTAL     ACCESS:       2222  HIT:       1055  MISS:       1167
cpu0_L2C LOAD      ACCESS:       1356  HIT:        529  MISS:        827
cpu0_L2C RFO       ACCESS:        159  HIT:         42  MISS:        117
cpu0_L2C PREFETCH  ACCESS:        557  HIT:        336  MISS:        221
cpu0_L2C WRITEBACK ACCESS:        147  HIT:        147  MISS:          0
cpu0_L2C TRANSLATION ACCESS:          3  HIT:          1  MISS:          2
cpu0_L2C PREFETCH  REQUESTED:       4098  ISSUED:       4064  USEFUL:        297  USELESS:          0
cpu0_L2C AVERAGE MISS LATENCY: 106.539 cycles
LLC TOTAL     ACCESS:       3436  HIT:       1973  MISS:       1463
LLC LOAD      ACCESS:        731  HIT:        273  MISS:        458
LLC RFO       ACCESS:        117  HIT:          1  MISS:        116
LLC PREFETCH  ACCESS:       2586  HIT:       1699  MISS:        887
LLC WRITEBACK ACCESS:          0  HIT:          0  MISS:          0
LLC TRANSLATION ACCESS:          2  HIT:          0  MISS:          2
LLC PREFETCH  REQUESTED:          0  ISSUED:          0  USEFUL:          0  USELESS:          0
LLC AVERAGE MISS LATENCY: 146.794 cycles

DRAM Statistics
 CHANNEL 0
 RQ ROW_BUFFER_HIT:        485  ROW_BUFFER_MISS:        978
 DBUS AVG_CONGESTED_CYCLE:    3.89464
 WQ ROW_BUFFER_HIT:          0  ROW_BUFFER_MISS:          0  FULL:          0


CPU 0 Branch Prediction Accuracy: 91.195% MPKI: 13.7189 Average ROB Occupancy at Mispredict: 30.7128
Branch type MPKI
BRANCH_DIRECT_JUMP: 0.76
BRANCH_INDIRECT: 0.04
BRANCH_CONDITIONAL: 8.6
BRANCH_DIRECT_CALL: 2.18
BRANCH_INDIRECT_CALL: 0
BRANCH_RETURN: 2.14

