
*** ChampSim Multicore Out-of-Order Simulator ***

Warmup Instructions: 20000
Simulation Instructions: 50000
Number of CPUs: 1
Off-chip DRAM Size: 4 GiB Channels: 1 Width: 64-bit Data Rate: 3200 MT/s

VirtualMemory physical capacity: 8588881920 num_ppages: 2096895
VirtualMemory page size: 4096 log2_page_size: 12

CPU 0 runs dpc3_traces/648.exchange2_s-1699B.champsimtrace.xz
CPU 0 Bimodal branch predictor
Basic BTB sets: 1024 ways: 8 indirect buffer size: 4096 RAS size: 64
SPP-DEV original prefetcher

Warmup complete CPU 0 instructions: 20001 cycles: 5159 (Simulation time: 0 hr 0 min 0 sec) 

Finished CPU 0 instructions: 50003 cycles: 40245 cumulative IPC: 1.24246 (Simulation time: 0 hr 0 min 0 sec) 

ChampSim completed all CPUs

Region of Interest Statistics

CPU 0 cumulative IPC: 1.24246 instructions: 50003 cycles: 40245
cpu0_DTLB TOTAL     ACCESS:       7179  HIT:       7179  MISS:          0
cpu0_DTLB LOAD      ACCESS:       3123  HIT:       3123  MISS:          0
cpu0_DTLB RFO       ACCESS:       4056  HIT:       4056  MISS:          0
cpu0_DTLB PREFETCH  ACCESS:          0  HIT:          0  MISS:          0
cpu0_DTLB WRITEBACK ACCESS:          0  HIT:          0  MISS:          0
cpu0_DTLB TRANSLATION ACCESS:          0  HIT:          0  MISS:          0
cpu0_DTLB PREFETCH  REQUESTED:          0  ISSUED:          0  USEFUL:          0  USELESS:          0
cpu0_DTLB AVERAGE MISS LATENCY: -nan cycles
cpu0_ITLB TOTAL     ACCESS:       5013  HIT:       5013  MISS:          0
cpu0_ITLB LOAD      ACCESS:       5013  HIT:       5013  MISS:          0
cpu0_ITLB RFO       ACCESS:          0  HIT:          0  MISS:          0
cpu0_ITLB PREFETCH  ACCESS:          0  HIT:          0  MISS:          0
cpu0_ITLB WRITEBACK ACCESS:          0  HIT:          0  MISS:          0
cpu0_ITLB TRANSLATION ACCESS:          0  HIT:          0  MISS:          0
cpu0_ITLB PREFETCH  REQUESTED:          0  ISSUED:          0  USEFUL:          0  USELESS:          0
cpu0_ITLB AVERAGE MISS LATENCY: -nan cycles
cpu0_L1I TOTAL     ACCESS:       2324  HIT:       2318  MISS:          6
cpu0_L1I LOAD      ACCESS:       2324  HIT:       2318  MISS:          6
cpu0_L1I RFO       ACCESS:          0  HIT:          0  MISS:          0
cpu0_L1I PREFETCH  ACCESS:          0  HIT:          0  MISS:          0
cpu0_L1I WRITEBACK ACCESS:          0  HIT:          0  MISS:          0
cpu0_L1I TRANSLATION ACCESS:          0  HIT:          0  MISS:          0
cpu0_L1I PREFETCH  REQUESTED:          0  ISSUED:          0  USEFUL:          0  USELESS:          0
cpu0_L1I AVERAGE MISS LATENCY: 167.167 cycles
cpu0_L1D TOTAL     ACCESS:      13379  HIT:      13377  MISS:          2
cpu0_L1D LOAD      ACCESS:       6051  HIT:       6049  MISS:          2
cpu0_L1D RFO       ACCESS:       7328  HIT:       7328  MISS:          0
cpu0_L1D PREFETCH  ACCESS:          0  HIT:          0  MISS:          0
cpu0_L1D WRITEBACK ACCESS:          0  HIT:          0  MISS:          0
cpu0_L1D TRANSLATION ACCESS:          0  HIT:          0  MISS:          0
cpu0_L1D PREFETCH  REQUESTED:          0  ISSUED:          0  USEFUL:          0  USELESS:          0
cpu0_L1D AVERAGE MISS LATENCY: 32 cycles
cpu0_L2C TOTAL     ACCESS:          9  HIT:          1  MISS:          8
cpu0_L2C LOAD      ACCESS:          8  HIT:          0  MISS:          8
cpu0_L2C RFO       ACCESS:          0  HIT:          0  MISS:          0
cpu0_L2C PREFETCH  ACCESS:          1  HIT:          1  MISS:          0
cpu0_L2C WRITEBACK ACCESS:          0  HIT:          0  MISS:          0
cpu0_L2C TRANSLATION ACCESS:          0  HIT:          0  MISS:          0
cpu0_L2C PREFETCH  REQUESTED:          3  ISSUED:          3  USEFUL:          0  USELESS:          0
cpu0_L2C AVERAGE MISS LATENCY: 122.375 cycles
LLC TOTAL     ACCESS:         10  HIT:          3  MISS:          7
LLC LOAD      ACCESS:          8  HIT:          3  MISS:          5
LLC RFO       ACCESS:          0  HIT:          0  MISS:          0
LLC PREFETCH  ACCESS:          2  HIT:          0  MISS:          2
LLC WRITEBACK ACCESS:          0  HIT:          0  MISS:          0
LLC TRANSLATION ACCESS:          0  HIT:          0  MISS:          0
LLC PREFETCH  REQUESTED:          0  ISSUED:          0  USEFUL:          0  USELESS:          0
LLC AVERAGE MISS LATENCY: 162.143 cycles

DRAM Statistics
 CHANNEL 0
 RQ ROW_BUFFER_HIT:          0  ROW_BUFFER_MISS:          7
 DBUS AVG_CONGESTED_CYCLE: -
 WQ ROW_BUFFER_HIT:          0  ROW_BUFFER_MISS:          0  FULL:          0


CPU 0 Branch Prediction Accuracy: 73.8311% MPKI: 35.2572 Average ROB Occupancy at Mispredict: 12.8037
Branch type MPKI
BRANCH_DIRECT_JUMP: 0.0199988
BRANCH_INDIRECT: 0
BRANCH_CONDITIONAL: 35.2379
BRANCH_DIRECT_CALL: 0
BRANCH_INDIRECT_CALL: 0
BRANCH_RETURN: 0

