
*** ChampSim Multicore Out-of-Order Simulator ***

Warmup Instructions: 20000
Simulation Instructions: 50000
Number of CPUs: 1
Off-chip DRAM Size: 4 GiB Channels: 1 Width: 64-bit Data Rate: 3200 MT/s

VirtualMemory physical capacity: 8588881920 num_ppages: 2096895
VirtualMemory page size: 4096 log2_page_size: 12

CPU 0 runs dpc3_traces/648.exchange2_s-1699B.champsimtrace.xz
CPU 0 Bimodal branch predictor
Basic BTB sets: 1024 ways: 8 indirect buffer size: 4096 RAS size: 64
cpu0_L2C PPF over next line prefetcher with 4 features

Warmup complete CPU 0 instructions: 20001 cycles: 5160 (Simulation time: 0 hr 0 min 0 sec) 

Finished CPU 0 instructions: 50003 cycles: 40558 cumulative IPC: 1.23288 (Simulation time: 0 hr 0 min 0 sec) 

ChampSim completed all CPUs

Region of Interest Statistics

CPU 0 cumulative IPC: 1.23288 instructions: 50003 cycles: 40558
cpu0_DTLB TOTAL     ACCESS:       7176  HIT:       7176  MISS:          0
cpu0_DTLB LOAD      ACCESS:       3128  HIT:       3128  MISS:          0
cpu0_DTLB RFO       ACCESS:       4048  HIT:       4048  MISS:          0
cpu0_DTLB PREFETCH  ACCESS:          0  HIT:          0  MISS:          0
cpu0_DTLB WRITEBACK ACCESS:          0  HIT:          0  MISS:          0
cpu0_DTLB TRANSLATION ACCESS:          0  HIT:          0  MISS:          0
cpu0_DTLB PREFETCH  REQUESTED:          0  ISSUED:          0  USEFUL:          0  USELESS:          0
cpu0_DTLB AVERAGE MISS LATENCY: -nan cycles
cpu0_ITLB TOTAL     ACCESS:       5013  HIT:       5013  MISS:          0
cpu0_ITLB LOAD      ACCESS:       5013  HIT:       5013  MISS:          0
cpu0_ITLB RFO       ACCESS:          0  HIT:          0  MISS:          0
cpu0_ITLB PREFETCH  ACCESS:          0  HIT:          0  MISS:          0
cpu0_ITLB WRITEBACK ACCESS:          0  HIT:          0  MISS:          0
cpu0_ITLB TRANSLATION ACCESS:          0  HIT:          0  MISS:          0
cpu0_ITLB PREFETCH  REQUESTED:          0  ISSUED:          0  USEFUL:          0  USELESS:          0
cpu0_ITLB AVERAGE MISS LATENCY: -nan cycles
cpu0_L1I TOTAL     ACCESS:       2324  HIT:       2318  MISS:          6
cpu0_L1I LOAD      ACCESS:       2324  HIT:       2318  MISS:          6
cpu0_L1I RFO       ACCESS:          0  HIT:          0  MISS:          0
cpu0_L1I PREFETCH  ACCESS:          0  HIT:          0  MISS:          0
cpu0_L1I WRITEBACK ACCESS:          0  HIT:          0  MISS:          0
cpu0_L1I TRANSLATION ACCESS:          0  HIT:          0  MISS:          0
cpu0_L1I PREFETCH  REQUESTED:          0  ISSUED:          0  USEFUL:          0  USELESS:          0
cpu0_L1I AVERAGE MISS LATENCY: 194 cycles
cpu0_L1D TOTAL     ACCESS:      13374  HIT:      13372  MISS:          2
cpu0_L1D LOAD      ACCESS:       6048  HIT:       6046  MISS:          2
cpu0_L1D RFO       ACCESS:       7326  HIT:       7326  MISS:          0
cpu0_L1D PREFETCH  ACCESS:          0  HIT:          0  MISS:          0
cpu0_L1D WRITEBACK ACCESS:          0  HIT:          0  MISS:          0
cpu0_L1D TRANSLATION ACCESS:          0  HIT:          0  MISS:          0
cpu0_L1D PREFETCH  REQUESTED:          0  ISSUED:          0  USEFUL:          0  USELESS:          0
cpu0_L1D AVERAGE MISS LATENCY: 194 cycles
cpu0_L2C TOTAL     ACCESS:         16  HIT:          8  MISS:          8
cpu0_L2C LOAD      ACCESS:          8  HIT:          0  MISS:          8
cpu0_L2C RFO       ACCESS:          0  HIT:          0  MISS:          0
cpu0_L2C PREFETCH  ACCESS:          8  HIT:          8  MISS:          0
cpu0_L2C WRITEBACK ACCESS:          0  HIT:          0  MISS:          0
cpu0_L2C TRANSLATION ACCESS:          0  HIT:          0  MISS:          0
cpu0_L2C PREFETCH  REQUESTED:         32  ISSUED:          8  USEFUL:          0  USELESS:          0
cpu0_L2C AVERAGE MISS LATENCY: 183 cycles
LLC TOTAL     ACCESS:          8  HIT:          0  MISS:          8
LLC LOAD      ACCESS:          8  HIT:          0  MISS:          8
LLC RFO       ACCESS:          0  HIT:          0  MISS:          0
LLC PREFETCH  ACCESS:          0  HIT:          0  MISS:          0
LLC WRITEBACK ACCESS:          0  HIT:          0  MISS:          0
LLC TRANSLATION ACCESS:          0  HIT:          0  MISS:          0
LLC PREFETCH  REQUESTED:          0  ISSUED:          0  USEFUL:          0  USELESS:          0
LLC AVERAGE MISS LATENCY: 162 cycles

DRAM Statistics
 CHANNEL 0
 RQ ROW_BUFFER_HIT:          0  ROW_BUFFER_MISS:          8
 DBUS AVG_CONGESTED_CYCLE: -
 WQ ROW_BUFFER_HIT:          0  ROW_BUFFER_MISS:          0  FULL:          0


CPU 0 Branch Prediction Accuracy: 73.8311% MPKI: 35.2572 Average ROB Occupancy at Mispredict: 13.4918
Branch type MPKI
BRANCH_DIRECT_JUMP: 0.0199988
BRANCH_INDIRECT: 0
BRANCH_CONDITIONAL: 35.2379
BRANCH_DIRECT_CALL: 0
BRANCH_INDIRECT_CALL: 0
BRANCH_RETURN: 0

